  
       XFOIL         Version 6.94
  
 Calculated polar for: CLARK Y AIRFOIL                                 
  
 2 2 Reynolds number ~ 1/sqrt(CL)   Mach number ~ 1/sqrt(CL)  
  
 xtrf =   1.000 (top)        1.000 (bottom)  
 Mach =   0.000     Re =     0.200 e 6     Ncrit =   9.000
  
  alpha     CL        CD       CDp       CM    Top_Xtr Bot_Xtr
 ------- -------- --------- --------- -------- ------- -------
  -2.000   0.1776   0.00896   0.00248  -0.0853  0.7914  0.1449
  -1.800   0.1987   0.00885   0.00251  -0.0853  0.7882  0.2039
  -1.600   0.2200   0.00880   0.00254  -0.0852  0.7848  0.2575
  -1.400   0.2415   0.00877   0.00257  -0.0851  0.7814  0.3071
  -1.200   0.2625   0.00868   0.00260  -0.0850  0.7779  0.3679
  -1.000   0.2819   0.00843   0.00265  -0.0846  0.7731  0.4646
  -0.800   0.2992   0.00804   0.00271  -0.0837  0.7679  0.6098
  -0.600   0.3147   0.00767   0.00281  -0.0820  0.7630  0.7580
  -0.400   0.3333   0.00756   0.00296  -0.0804  0.7586  0.8755
  -0.200   0.3743   0.00779   0.00315  -0.0838  0.7564  0.9610
   0.000   0.4286   0.00807   0.00327  -0.0904  0.7552  0.9928
   0.200   0.4635   0.00822   0.00329  -0.0932  0.7505  1.0000
   0.400   0.4836   0.00834   0.00328  -0.0928  0.7446  1.0000
   0.600   0.5035   0.00847   0.00330  -0.0923  0.7384  1.0000
   0.800   0.5229   0.00858   0.00334  -0.0917  0.7309  1.0000
   1.000   0.5430   0.00871   0.00334  -0.0912  0.7243  1.0000
   1.200   0.5624   0.00884   0.00339  -0.0906  0.7166  1.0000
   1.400   0.5820   0.00897   0.00343  -0.0900  0.7087  1.0000
   1.600   0.6020   0.00911   0.00346  -0.0895  0.7015  1.0000
   1.800   0.6211   0.00924   0.00355  -0.0888  0.6928  1.0000
   2.000   0.6412   0.00939   0.00357  -0.0883  0.6854  1.0000
   2.200   0.6602   0.00953   0.00367  -0.0876  0.6760  1.0000
   2.400   0.6800   0.00968   0.00372  -0.0870  0.6675  1.0000
   2.600   0.6991   0.00983   0.00383  -0.0863  0.6575  1.0000
   2.800   0.7188   0.00999   0.00388  -0.0856  0.6479  1.0000
   3.000   0.7377   0.01013   0.00398  -0.0849  0.6361  1.0000
   3.200   0.7570   0.01030   0.00406  -0.0842  0.6248  1.0000
   3.400   0.7760   0.01047   0.00415  -0.0834  0.6121  1.0000
   3.600   0.7949   0.01065   0.00428  -0.0827  0.5987  1.0000
   3.800   0.8138   0.01085   0.00439  -0.0819  0.5849  1.0000
   4.000   0.8325   0.01107   0.00450  -0.0811  0.5699  1.0000
   4.200   0.8507   0.01131   0.00463  -0.0803  0.5535  1.0000
   4.400   0.8688   0.01156   0.00479  -0.0794  0.5359  1.0000
   4.600   0.8867   0.01184   0.00498  -0.0785  0.5184  1.0000
   4.800   0.9046   0.01214   0.00518  -0.0776  0.5012  1.0000
   5.000   0.9224   0.01245   0.00539  -0.0768  0.4847  1.0000
   5.200   0.9403   0.01277   0.00562  -0.0759  0.4691  1.0000
   5.400   0.9580   0.01311   0.00586  -0.0751  0.4546  1.0000
   5.600   0.9756   0.01346   0.00609  -0.0742  0.4411  1.0000
   5.800   0.9936   0.01376   0.00635  -0.0735  0.4278  1.0000
   6.000   1.0117   0.01410   0.00663  -0.0727  0.4167  1.0000
   6.200   1.0299   0.01445   0.00691  -0.0720  0.4070  1.0000
   6.400   1.0485   0.01480   0.00724  -0.0714  0.3983  1.0000
   6.600   1.0668   0.01515   0.00756  -0.0708  0.3898  1.0000
   6.800   1.0853   0.01554   0.00790  -0.0702  0.3823  1.0000
   7.000   1.1037   0.01587   0.00826  -0.0695  0.3744  1.0000
   7.400   1.1400   0.01663   0.00901  -0.0682  0.3590  1.0000
   7.600   1.1576   0.01704   0.00938  -0.0675  0.3511  1.0000
   7.800   1.1753   0.01743   0.00979  -0.0668  0.3433  1.0000
   8.000   1.1923   0.01780   0.01019  -0.0660  0.3351  1.0000
   8.200   1.2093   0.01825   0.01062  -0.0652  0.3268  1.0000
   8.400   1.2247   0.01858   0.01102  -0.0641  0.3167  1.0000
   8.600   1.2396   0.01899   0.01143  -0.0629  0.3061  1.0000
   8.800   1.2531   0.01938   0.01180  -0.0616  0.2943  1.0000
   9.000   1.2663   0.01970   0.01221  -0.0602  0.2813  1.0000
   9.200   1.2787   0.02011   0.01265  -0.0587  0.2683  1.0000
   9.400   1.2897   0.02054   0.01307  -0.0570  0.2541  1.0000
   9.600   1.2991   0.02100   0.01353  -0.0550  0.2380  1.0000
   9.800   1.3070   0.02152   0.01403  -0.0529  0.2206  1.0000
  10.000   1.3143   0.02217   0.01464  -0.0508  0.2027  1.0000
  10.200   1.3203   0.02296   0.01536  -0.0486  0.1869  1.0000
  10.400   1.3261   0.02384   0.01618  -0.0466  0.1735  1.0000
  10.600   1.3331   0.02472   0.01705  -0.0447  0.1619  1.0000
  10.800   1.3388   0.02570   0.01800  -0.0429  0.1526  1.0000
  11.000   1.3454   0.02664   0.01895  -0.0412  0.1440  1.0000
  11.200   1.3516   0.02765   0.01997  -0.0396  0.1372  1.0000
  11.400   1.3589   0.02860   0.02096  -0.0382  0.1298  1.0000
  11.600   1.3636   0.02974   0.02209  -0.0366  0.1230  1.0000
  11.800   1.3713   0.03071   0.02315  -0.0354  0.1153  1.0000
  12.000   1.3753   0.03197   0.02442  -0.0340  0.1083  1.0000
  12.200   1.3817   0.03310   0.02562  -0.0329  0.1001  1.0000
  12.400   1.3856   0.03447   0.02704  -0.0318  0.0911  1.0000
  12.600   1.3868   0.03613   0.02870  -0.0305  0.0799  1.0000
  12.800   1.3861   0.03804   0.03059  -0.0294  0.0656  1.0000
  13.000   1.3821   0.04031   0.03281  -0.0282  0.0538  1.0000
  13.200   1.3780   0.04268   0.03516  -0.0272  0.0466  1.0000
  13.600   1.3699   0.04763   0.04017  -0.0257  0.0391  1.0000
  13.800   1.3638   0.05043   0.04301  -0.0253  0.0371  1.0000
  14.000   1.3605   0.05303   0.04572  -0.0249  0.0353  1.0000
  14.200   1.3561   0.05584   0.04862  -0.0248  0.0340  1.0000
  14.400   1.3505   0.05886   0.05173  -0.0248  0.0329  1.0000
  15.000   1.3313   0.06879   0.06191  -0.0257  0.0307  1.0000
  15.400   1.3221   0.07524   0.06856  -0.0266  0.0294  1.0000
  15.600   1.3175   0.07854   0.07195  -0.0272  0.0288  1.0000
