  
       XFOIL         Version 6.94
  
 Calculated polar for: CLARK-Y 11.7% smoothed                          
  
 2 2 Reynolds number ~ 1/sqrt(CL)   Mach number ~ 1/sqrt(CL)  
  
 xtrf =   1.000 (top)        1.000 (bottom)  
 Mach =   0.000     Re =     0.100 e 6     Ncrit =   9.000
  
  alpha     CL        CD       CDp       CM    Top_Xtr Bot_Xtr
 ------- -------- --------- --------- -------- ------- -------
  -2.000   0.1746   0.01152   0.00498  -0.0858  0.8542  0.3238
  -1.800   0.1899   0.01144   0.00511  -0.0846  0.8500  0.3951
  -1.600   0.2054   0.01121   0.00520  -0.0834  0.8465  0.4978
  -1.400   0.2200   0.01078   0.00530  -0.0816  0.8432  0.6533
  -1.000   0.3776   0.01256   0.00715  -0.1047  0.8607  0.9845
  -0.800   0.4243   0.01297   0.00732  -0.1103  0.8590  1.0000
  -0.600   0.4354   0.01307   0.00732  -0.1082  0.8492  1.0000
  -0.400   0.4571   0.01314   0.00722  -0.1081  0.8445  1.0000
  -0.200   0.4695   0.01330   0.00728  -0.1062  0.8357  1.0000
   0.000   0.4879   0.01340   0.00725  -0.1054  0.8290  1.0000
   0.200   0.5117   0.01347   0.00717  -0.1056  0.8248  1.0000
   0.400   0.5213   0.01368   0.00732  -0.1031  0.8141  1.0000
   0.600   0.5432   0.01377   0.00727  -0.1029  0.8086  1.0000
   0.800   0.5574   0.01396   0.00738  -0.1012  0.7998  1.0000
   1.000   0.5766   0.01407   0.00739  -0.1004  0.7925  1.0000
   1.200   0.5971   0.01420   0.00740  -0.0999  0.7858  1.0000
   1.400   0.6116   0.01438   0.00751  -0.0983  0.7762  1.0000
   1.600   0.6363   0.01444   0.00744  -0.0985  0.7705  1.0000
   1.800   0.6478   0.01467   0.00763  -0.0963  0.7592  1.0000
   2.000   0.6723   0.01473   0.00756  -0.0964  0.7527  1.0000
   2.200   0.6847   0.01495   0.00775  -0.0943  0.7411  1.0000
   2.400   0.7094   0.01502   0.00769  -0.0945  0.7342  1.0000
   2.600   0.7220   0.01525   0.00789  -0.0924  0.7221  1.0000
   2.800   0.7431   0.01537   0.00792  -0.0919  0.7130  1.0000
   3.000   0.7603   0.01552   0.00802  -0.0907  0.7016  1.0000
   3.200   0.7772   0.01571   0.00814  -0.0894  0.6898  1.0000
   3.400   0.8005   0.01580   0.00810  -0.0892  0.6800  1.0000
   3.600   0.8147   0.01602   0.00829  -0.0874  0.6663  1.0000
   3.800   0.8319   0.01623   0.00846  -0.0862  0.6536  1.0000
   4.000   0.8533   0.01640   0.00851  -0.0857  0.6421  1.0000
   4.200   0.8700   0.01663   0.00867  -0.0844  0.6281  1.0000
   4.400   0.8859   0.01689   0.00888  -0.0829  0.6136  1.0000
   4.600   0.9033   0.01716   0.00909  -0.0818  0.5998  1.0000
   4.800   0.9227   0.01743   0.00925  -0.0810  0.5868  1.0000
   5.000   0.9406   0.01774   0.00948  -0.0799  0.5732  1.0000
   5.200   0.9560   0.01813   0.00984  -0.0785  0.5595  1.0000
   5.400   0.9736   0.01852   0.01016  -0.0775  0.5470  1.0000
   5.600   0.9943   0.01889   0.01042  -0.0770  0.5358  1.0000
   5.800   1.0083   0.01934   0.01090  -0.0755  0.5232  1.0000
   6.000   1.0263   0.01980   0.01130  -0.0746  0.5126  1.0000
   6.200   1.0447   0.02021   0.01164  -0.0738  0.5016  1.0000
   6.400   1.0588   0.02065   0.01208  -0.0722  0.4895  1.0000
   6.600   1.0765   0.02102   0.01238  -0.0712  0.4780  1.0000
   6.800   1.0923   0.02135   0.01265  -0.0699  0.4656  1.0000
   7.000   1.1050   0.02173   0.01306  -0.0681  0.4531  1.0000
   7.200   1.1215   0.02211   0.01337  -0.0669  0.4420  1.0000
   7.400   1.1365   0.02252   0.01377  -0.0656  0.4311  1.0000
   7.600   1.1510   0.02301   0.01430  -0.0642  0.4213  1.0000
   7.800   1.1683   0.02344   0.01468  -0.0633  0.4116  1.0000
   8.000   1.1806   0.02394   0.01527  -0.0615  0.4015  1.0000
   8.200   1.1996   0.02437   0.01560  -0.0609  0.3918  1.0000
   8.400   1.2084   0.02484   0.01621  -0.0586  0.3808  1.0000
   8.600   1.2227   0.02529   0.01664  -0.0572  0.3702  1.0000
   8.800   1.2349   0.02570   0.01709  -0.0554  0.3586  1.0000
   9.000   1.2437   0.02617   0.01765  -0.0531  0.3466  1.0000
   9.200   1.2539   0.02659   0.01806  -0.0510  0.3338  1.0000
   9.400   1.2630   0.02700   0.01841  -0.0487  0.3194  1.0000
   9.600   1.2663   0.02743   0.01886  -0.0456  0.3039  1.0000
   9.800   1.2669   0.02791   0.01937  -0.0420  0.2870  1.0000
  10.000   1.2649   0.02846   0.01989  -0.0381  0.2692  1.0000
  10.200   1.2609   0.02912   0.02050  -0.0339  0.2511  1.0000
  10.400   1.2573   0.02994   0.02121  -0.0301  0.2329  1.0000
  10.600   1.2544   0.03087   0.02207  -0.0266  0.2162  1.0000
  10.800   1.2533   0.03189   0.02307  -0.0236  0.2014  1.0000
  11.000   1.2550   0.03301   0.02418  -0.0211  0.1887  1.0000
  11.400   1.2657   0.03533   0.02636  -0.0174  0.1698  1.0000
  11.600   1.2739   0.03663   0.02766  -0.0160  0.1619  1.0000
  11.800   1.2818   0.03782   0.02882  -0.0145  0.1549  1.0000
  12.000   1.2938   0.03921   0.03020  -0.0136  0.1486  1.0000
  12.200   1.3016   0.04058   0.03168  -0.0122  0.1430  1.0000
  12.600   1.3281   0.04361   0.03471  -0.0108  0.1327  1.0000
  13.000   1.3486   0.04666   0.03788  -0.0089  0.1238  1.0000
  13.200   1.3666   0.04884   0.04007  -0.0088  0.1193  1.0000
  13.600   1.3597   0.05250   0.04423  -0.0049  0.1136  1.0000
  13.800   1.3653   0.05432   0.04612  -0.0038  0.1102  1.0000
  14.400   1.3609   0.06160   0.05386  -0.0002  0.1026  1.0000
  14.800   1.3359   0.06699   0.05970   0.0023  0.0991  1.0000
  16.200   0.8698   0.17630   0.17074  -0.0508  0.1413  1.0000
  16.600   0.8530   0.18892   0.18338  -0.0579  0.1589  1.0000
  16.800   0.8627   0.19131   0.18579  -0.0581  0.1552  1.0000
  17.200   0.9143   0.19946   0.19405  -0.0541  0.1514  1.0000
  17.800   0.8874   0.20598   0.20051  -0.0633  0.1383  1.0000
  18.400   0.8872   0.21523   0.20976  -0.0695  0.1277  1.0000
  18.600   0.8968   0.21764   0.21219  -0.0698  0.1243  1.0000
  19.200   0.9045   0.22663   0.22117  -0.0750  0.1148  1.0000
  19.400   0.9102   0.22914   0.22369  -0.0762  0.1113  1.0000
  19.600   0.9205   0.23165   0.22622  -0.0763  0.1086  1.0000
  19.800   0.9492   0.23760   0.23224  -0.0730  0.1063  1.0000
  20.000   0.9443   0.24080   0.23540  -0.0762  0.1053  1.0000
