  
       XFOIL         Version 6.94
  
 Calculated polar for: CLARK Y AIRFOIL                                 
  
 2 2 Reynolds number ~ 1/sqrt(CL)   Mach number ~ 1/sqrt(CL)  
  
 xtrf =   1.000 (top)        1.000 (bottom)  
 Mach =   0.000     Re =     0.050 e 6     Ncrit =   9.000
  
  alpha     CL        CD       CDp       CM    Top_Xtr Bot_Xtr
 ------- -------- --------- --------- -------- ------- -------
  -1.400   0.1691   0.01682   0.01099  -0.0821  0.8803  0.7707
  -1.400   0.1691   0.01682   0.01099  -0.0821  0.8803  0.7707
  -1.000   0.2299   0.01870   0.01245  -0.0866  0.8828  1.0000
  -1.000   0.2299   0.01870   0.01245  -0.0866  0.8828  1.0000
  -0.400   0.2865   0.02029   0.01326  -0.0861  0.8702  1.0000
  -0.200   0.2999   0.02082   0.01361  -0.0849  0.8629  1.0000
   0.000   0.3207   0.02140   0.01396  -0.0852  0.8594  1.0000
  -0.400   0.2865   0.02029   0.01326  -0.0861  0.8702  1.0000
   0.200   0.3438   0.02199   0.01433  -0.0858  0.8569  1.0000
  -0.200   0.2999   0.02082   0.01361  -0.0849  0.8629  1.0000
   0.400   0.3540   0.02256   0.01476  -0.0841  0.8473  1.0000
   0.000   0.3207   0.02140   0.01396  -0.0852  0.8594  1.0000
   0.600   0.3740   0.02313   0.01514  -0.0841  0.8421  1.0000
   0.200   0.3438   0.02199   0.01433  -0.0858  0.8569  1.0000
   0.800   0.3985   0.02368   0.01549  -0.0849  0.8388  1.0000
   0.400   0.3540   0.02256   0.01476  -0.0841  0.8473  1.0000
   1.000   0.4247   0.02422   0.01584  -0.0859  0.8360  1.0000
   1.200   0.4323   0.02482   0.01635  -0.0837  0.8234  1.0000
   0.600   0.3740   0.02313   0.01514  -0.0841  0.8421  1.0000
   1.400   0.4587   0.02530   0.01666  -0.0847  0.8196  1.0000
   0.800   0.3985   0.02368   0.01549  -0.0849  0.8388  1.0000
   1.600   0.4713   0.02592   0.01718  -0.0834  0.8090  1.0000
   1.000   0.4247   0.02422   0.01584  -0.0859  0.8360  1.0000
   1.800   0.4952   0.02638   0.01750  -0.0838  0.8029  1.0000
   1.200   0.4323   0.02482   0.01635  -0.0837  0.8234  1.0000
   2.000   0.5248   0.02676   0.01772  -0.0851  0.7992  1.0000
   1.400   0.4587   0.02530   0.01666  -0.0847  0.8196  1.0000
   1.600   0.4713   0.02592   0.01718  -0.0834  0.8090  1.0000
   1.800   0.4952   0.02638   0.01750  -0.0838  0.8029  1.0000
   2.400   0.5650   0.02767   0.01844  -0.0844  0.7811  1.0000
   2.000   0.5248   0.02676   0.01772  -0.0851  0.7992  1.0000
   2.600   0.5771   0.02828   0.01899  -0.0829  0.7677  1.0000
   2.400   0.5650   0.02767   0.01844  -0.0844  0.7811  1.0000
   3.000   0.6206   0.02909   0.01964  -0.0825  0.7485  1.0000
   2.600   0.5771   0.02828   0.01899  -0.0829  0.7677  1.0000
   3.400   0.6652   0.02984   0.02025  -0.0821  0.7283  1.0000
   3.000   0.6206   0.02909   0.01964  -0.0825  0.7485  1.0000
   3.400   0.6652   0.02984   0.02025  -0.0821  0.7283  1.0000
   4.200   0.7561   0.03125   0.02144  -0.0810  0.6870  1.0000
   4.600   0.7995   0.03218   0.02228  -0.0803  0.6667  1.0000
   4.800   0.8082   0.03327   0.02338  -0.0787  0.6521  1.0000
   4.200   0.7561   0.03125   0.02144  -0.0810  0.6870  1.0000
   5.000   0.8392   0.03338   0.02342  -0.0793  0.6466  1.0000
   5.200   0.8450   0.03473   0.02483  -0.0775  0.6324  1.0000
   4.600   0.7995   0.03218   0.02228  -0.0803  0.6667  1.0000
   4.800   0.8082   0.03327   0.02338  -0.0787  0.6521  1.0000
   5.000   0.8392   0.03338   0.02342  -0.0793  0.6466  1.0000
   5.200   0.8450   0.03473   0.02483  -0.0775  0.6324  1.0000
   5.800   0.8864   0.03788   0.02802  -0.0748  0.6023  1.0000
   6.000   0.9070   0.03856   0.02871  -0.0745  0.5945  1.0000
   6.200   0.9144   0.04008   0.03029  -0.0731  0.5841  1.0000
   6.400   0.9336   0.04081   0.03104  -0.0726  0.5760  1.0000
   6.600   0.9419   0.04232   0.03260  -0.0713  0.5663  1.0000
   5.800   0.8864   0.03788   0.02802  -0.0748  0.6023  1.0000
   6.800   0.9580   0.04322   0.03354  -0.0705  0.5574  1.0000
   6.000   0.9070   0.03856   0.02871  -0.0745  0.5945  1.0000
   6.200   0.9144   0.04008   0.03029  -0.0731  0.5841  1.0000
   7.000   0.9682   0.04459   0.03496  -0.0694  0.5481  1.0000
   6.400   0.9336   0.04081   0.03104  -0.0726  0.5760  1.0000
   7.200   0.9822   0.04561   0.03603  -0.0684  0.5386  1.0000
   6.600   0.9419   0.04232   0.03260  -0.0713  0.5663  1.0000
   6.800   0.9580   0.04322   0.03354  -0.0705  0.5574  1.0000
   7.000   0.9682   0.04459   0.03496  -0.0694  0.5481  1.0000
   7.600   1.0115   0.04746   0.03801  -0.0662  0.5193  1.0000
   7.800   1.0085   0.04962   0.04025  -0.0642  0.5072  1.0000
   7.200   0.9822   0.04561   0.03603  -0.0684  0.5386  1.0000
   8.000   1.0622   0.04733   0.03797  -0.0646  0.4989  1.0000
   8.200   1.0472   0.05021   0.04096  -0.0618  0.4851  1.0000
   8.400   1.0872   0.04890   0.03970  -0.0614  0.4744  1.0000
   8.600   1.1202   0.04813   0.03896  -0.0608  0.4618  1.0000
   7.600   1.0115   0.04746   0.03801  -0.0662  0.5193  1.0000
   8.800   1.1073   0.05077   0.04174  -0.0579  0.4483  1.0000
   7.800   1.0085   0.04962   0.04025  -0.0642  0.5072  1.0000
   9.000   1.1344   0.05056   0.04157  -0.0569  0.4354  1.0000
   8.000   1.0622   0.04733   0.03797  -0.0646  0.4989  1.0000
   9.200   1.1801   0.04910   0.04011  -0.0570  0.4207  1.0000
   8.200   1.0472   0.05021   0.04096  -0.0618  0.4851  1.0000
   9.400   1.2000   0.04948   0.04054  -0.0557  0.4054  1.0000
   8.400   1.0872   0.04890   0.03970  -0.0614  0.4744  1.0000
   9.600   1.1820   0.05245   0.04368  -0.0523  0.3925  1.0000
   8.600   1.1202   0.04813   0.03896  -0.0608  0.4618  1.0000
   9.800   1.1949   0.05347   0.04475  -0.0506  0.3783  1.0000
   8.800   1.1073   0.05077   0.04174  -0.0579  0.4483  1.0000
   9.000   1.1344   0.05056   0.04157  -0.0569  0.4354  1.0000
  10.000   1.2227   0.05364   0.04492  -0.0498  0.3631  1.0000
   9.200   1.1801   0.04910   0.04011  -0.0570  0.4207  1.0000
   9.400   1.2000   0.04948   0.04054  -0.0557  0.4054  1.0000
  10.200   1.2603   0.05367   0.04489  -0.0499  0.3480  1.0000
   9.600   1.1820   0.05245   0.04368  -0.0523  0.3925  1.0000
  10.400   1.2071   0.05873   0.05024  -0.0448  0.3410  1.0000
  10.000   1.2227   0.05364   0.04492  -0.0498  0.3631  1.0000
  10.600   1.2471   0.05876   0.05026  -0.0449  0.3278  1.0000
  10.200   1.2603   0.05367   0.04489  -0.0499  0.3480  1.0000
  11.000   1.2442   0.06342   0.05510  -0.0410  0.3099  1.0000
  10.400   1.2071   0.05873   0.05024  -0.0448  0.3410  1.0000
  11.200   1.1540   0.07196   0.06382  -0.0373  0.3074  1.0000
  10.600   1.2471   0.05876   0.05026  -0.0449  0.3278  1.0000
  11.400   0.9937   0.09641   0.08820  -0.0466  0.2990  1.0000
  11.000   1.2442   0.06342   0.05510  -0.0410  0.3099  1.0000
  11.800   0.9586   0.10851   0.10032  -0.0499  0.2856  1.0000
  12.000   0.9458   0.11398   0.10582  -0.0515  0.2804  1.0000
  11.200   1.1540   0.07196   0.06382  -0.0373  0.3074  1.0000
  11.400   0.9937   0.09641   0.08820  -0.0466  0.2990  1.0000
  11.800   0.9586   0.10851   0.10032  -0.0499  0.2856  1.0000
  12.000   0.9458   0.11398   0.10582  -0.0515  0.2804  1.0000
  12.800   0.8530   0.14665   0.13862  -0.0676  0.3181  1.0000
  13.000   0.8234   0.15538   0.14740  -0.0737  0.3592  1.0000
  13.200   0.8299   0.15821   0.15027  -0.0741  0.3541  1.0000
  12.800   0.8530   0.14665   0.13862  -0.0676  0.3181  1.0000
  13.600   0.8521   0.16555   0.15770  -0.0753  0.3500  1.0000
  13.000   0.8234   0.15538   0.14740  -0.0737  0.3592  1.0000
  14.000   0.8392   0.17002   0.16220  -0.0774  0.3397  1.0000
  13.200   0.8299   0.15821   0.15027  -0.0741  0.3541  1.0000
  14.400   0.8682   0.17733   0.16962  -0.0779  0.3312  1.0000
  14.800   0.8565   0.18134   0.17366  -0.0806  0.3217  1.0000
  15.000   0.8648   0.18422   0.17661  -0.0812  0.3164  1.0000
  13.600   0.8521   0.16555   0.15770  -0.0753  0.3500  1.0000
  15.400   0.8801   0.19143   0.18392  -0.0826  0.3089  1.0000
  15.600   0.8760   0.19251   0.18502  -0.0840  0.3004  1.0000
  14.000   0.8392   0.17002   0.16220  -0.0774  0.3397  1.0000
  15.800   0.9155   0.20169   0.19435  -0.0825  0.2924  1.0000
  14.400   0.8682   0.17733   0.16962  -0.0779  0.3312  1.0000
  16.000   0.8875   0.19872   0.19132  -0.0856  0.2875  1.0000
  16.200   0.9049   0.20317   0.19585  -0.0848  0.2727  1.0000
  14.800   0.8565   0.18134   0.17366  -0.0806  0.3217  1.0000
  16.400   0.9203   0.20750   0.20024  -0.0841  0.2556  1.0000
  15.000   0.8648   0.18422   0.17661  -0.0812  0.3164  1.0000
  16.600   0.9032   0.20654   0.19925  -0.0874  0.2485  1.0000
  16.800   0.9203   0.21213   0.20488  -0.0866  0.2374  1.0000
  17.000   0.9141   0.21276   0.20550  -0.0891  0.2278  1.0000
  15.400   0.8801   0.19143   0.18392  -0.0826  0.3089  1.0000
  17.200   0.9331   0.21935   0.21213  -0.0882  0.2207  1.0000
  15.600   0.8760   0.19251   0.18502  -0.0840  0.3004  1.0000
  15.800   0.9155   0.20169   0.19435  -0.0825  0.2924  1.0000
  17.400   0.9226   0.21913   0.21189  -0.0916  0.2140  1.0000
  16.000   0.8875   0.19872   0.19132  -0.0856  0.2875  1.0000
  17.600   0.9399   0.22398   0.21678  -0.0908  0.2063  1.0000
  17.800   0.9486   0.22936   0.22214  -0.0917  0.2041  1.0000
  18.000   0.9382   0.22864   0.22139  -0.0956  0.1992  1.0000
  18.200   0.9461   0.23155   0.22432  -0.0964  0.1925  1.0000
  18.400   0.9738   0.24142   0.23422  -0.0940  0.1882  1.0000
  18.600   0.9597   0.23898   0.23172  -0.0987  0.1863  1.0000
  18.800   0.9593   0.24021   0.23294  -0.1013  0.1808  1.0000
  19.000   0.9667   0.24322   0.23596  -0.1024  0.1769  1.0000
  19.200   0.9799   0.24799   0.24076  -0.1022  0.1736  1.0000
  19.400   0.9952   0.25568   0.24846  -0.1020  0.1717  1.0000
  19.600   0.9846   0.25286   0.24558  -0.1067  0.1691  1.0000
  19.800   0.9877   0.25456   0.24729  -0.1089  0.1638  1.0000
  20.000   0.9968   0.25778   0.25052  -0.1096  0.1595  1.0000
