  
       XFOIL         Version 6.94
  
 Calculated polar for: EPPLER 1233 AIRFOIL                             
  
 2 2 Reynolds number ~ 1/sqrt(CL)   Mach number ~ 1/sqrt(CL)  
  
 xtrf =   1.000 (top)        1.000 (bottom)  
 Mach =   0.000     Re =     0.120 e 6     Ncrit =   9.000
  
  alpha     CL        CD       CDp       CM    Top_Xtr Bot_Xtr
 ------- -------- --------- --------- -------- ------- -------
  -2.000   0.2873   0.01426   0.00762  -0.0950  0.5829  0.7102
  -1.800   0.3043   0.01480   0.00814  -0.0931  0.5784  0.7180
  -1.600   0.3238   0.01524   0.00846  -0.0923  0.5738  0.7305
  -1.400   0.3396   0.01574   0.00893  -0.0900  0.5691  0.7370
  -1.200   0.3574   0.01628   0.00936  -0.0884  0.5649  0.7478
  -1.000   0.3751   0.01688   0.00983  -0.0865  0.5609  0.7580
  -0.800   0.3888   0.01736   0.01030  -0.0839  0.5561  0.7687
