  
       XFOIL         Version 6.94
  
 Calculated polar for: EPPLER 1233 AIRFOIL                             
  
 2 2 Reynolds number ~ 1/sqrt(CL)   Mach number ~ 1/sqrt(CL)  
  
 xtrf =   1.000 (top)        1.000 (bottom)  
 Mach =   0.000     Re =     0.160 e 6     Ncrit =   9.000
  
  alpha     CL        CD       CDp       CM    Top_Xtr Bot_Xtr
 ------- -------- --------- --------- -------- ------- -------
  -2.000   0.2883   0.01203   0.00571  -0.0966  0.5587  0.6894
  -1.800   0.3075   0.01243   0.00607  -0.0955  0.5543  0.6987
  -1.600   0.3280   0.01279   0.00630  -0.0950  0.5497  0.7094
  -1.400   0.3463   0.01321   0.00666  -0.0936  0.5452  0.7164
  -1.200   0.3664   0.01365   0.00697  -0.0928  0.5411  0.7260
  -1.000   0.3854   0.01406   0.00730  -0.0917  0.5369  0.7346
  -0.800   0.4015   0.01450   0.00774  -0.0896  0.5324  0.7437
